<?xml version="1.0" encoding="UTF-8"?>

<!-- generated on 2026-06-23T14:05:23.495226+05:30 by Eclipse SUMO netconvert 1.27.0
<netconvertConfiguration xmlns:xsi="http://www.w3.org/2001/XMLSchema-instance" xsi:noNamespaceSchemaLocation="http://sumo.dlr.de/xsd/netconvertConfiguration.xsd">

    <input>
        <node-files value="intersection.nod.xml"/>
        <edge-files value="intersection.edg.xml"/>
    </input>

    <output>
        <output-file value="intersection.net.xml"/>
        <plain-output-prefix value="plain"/>
    </output>

    <processing>
        <lefthand value="true"/>
    </processing>

</netconvertConfiguration>
-->

<nodes version="1.20" xmlns:xsi="http://www.w3.org/2001/XMLSchema-instance" xsi:noNamespaceSchemaLocation="http://sumo.dlr.de/xsd/nodes_file.xsd">
    <location netOffset="200.00,200.00" convBoundary="0.00,-0.00,400.00,400.00" origBoundary="-200.00,-200.00,200.00,200.00" projParameter="!"/>

    <node id="center" x="200.00" y="200.00" type="traffic_light" tl="center"/>
    <node id="e" x="400.00" y="200.00" type="priority"/>
    <node id="n" x="200.00" y="400.00" type="priority"/>
    <node id="s" x="200.00" y="-0.00" type="priority"/>
    <node id="w" x="0.00" y="200.00" type="priority"/>
</nodes>
