<?xml version="1.0" encoding="UTF-8"?>
<configuration>
    <input>
        <net-file value="intersection.net.xml"/>
        <route-files value="routes.rou.xml"/>
    </input>
    <time>
        <begin value="0"/>
        <end value="3600"/>
        <step-length value="1.0"/>
    </time>
    <processing>
        <lateral-resolution value="0.4"/>
        <time-to-teleport value="300"/>
        <collision.action value="none"/>
    </processing>
</configuration>
