<nodes>
    <node id="center" x="0.0" y="0.0" type="traffic_light"/>
    <node id="n" x="0.0" y="500.0" type="priority"/>
    <node id="s" x="0.0" y="-500.0" type="priority"/>
    <node id="e" x="500.0" y="0.0" type="priority"/>
    <node id="w" x="-500.0" y="0.0" type="priority"/>
</nodes>